Circuit: * D:\WORK\MASTER\Dizertatie\GitHubDizertatie\trunk\Matlab Simulink Models\Circuits and Phase\LTSpice\L_circuit.asc

.OP point found by inspection.

Date: Sun Jan 03 22:45:11 2016
Total elapsed time: 0.031 seconds.

tnom = 27
temp = 27
method = modified trap
totiter = 2090
traniter = 2090
tranpoints = 1046
accept = 1045
rejected = 1
matrix size = 2
fillins = 0
solver = Normal
Matrix Compiler1: 36 bytes object code size  0.0/0.0/[0.0]
Matrix Compiler2: 96 bytes object code size  0.0/0.1/[0.0]


